*1N5381B
*Ref: Diodes Incorporated Catalog, 1994
*130V 5W Si Zener pkg:DIODE0.4 1,2
.MODEL 1N5381B D(IS=1.65E-10 RS=187 TT=5.01E-8 CJO=5.15E-11 M=0.33 
+ BV=128.1 IBV=0.01 )