*1N5357B
*Ref: Diodes Incorporated Catalog, 1994
*20V 5W Si Zener pkg:DIODE0.4 1,2
.MODEL 1N5357B D(IS=6.3E-15 RS=2.6 TT=5.01E-8 CJO=2.52E-10 M=0.33 
+ BV=19.84 IBV=0.065 )