*1N5385B
*Ref: Diodes Incorporated Catalog, 1994
*170V 5W Si Zener pkg:DIODE0.4 1,2
.MODEL 1N5385B D(IS=1.65E-10 RS=376 TT=5.01E-8 CJO=4.29E-11 M=0.33 
+ BV=167.3 IBV=0.00735 )