*1N5379B
*Ref: Diodes Incorporated Catalog, 1994
*110V 5W Si Zener pkg:DIODE0.4 1,2
.MODEL 1N5379B D(IS=1.65E-10 RS=122 TT=5.01E-8 CJO=5.82E-11 M=0.33 
+ BV=108.5 IBV=0.012 )