*1N5367B
*Ref: Diodes Incorporated Catalog, 1994
*43V 5W Si Zener pkg:DIODE0.4 1,2
.MODEL 1N5367B D(IS=1.65E-10 RS=19.1 TT=5.01E-8 CJO=1.25E-10 M=0.33 
+ BV=42.46 IBV=0.029 )