*1N5355B
*Ref: Diodes Incorporated Catalog, 1994
*18V 5W Si Zener pkg:DIODE0.4 1,2
.MODEL 1N5355B D(IS=9.15E-16 RS=2.1 TT=5.01E-8 CJO=2.79E-10 M=0.33 
+ BV=17.87 IBV=0.065 )