*1N5377B
*Ref: Diodes Incorporated Catalog, 1994
*91V 5W Si Zener pkg:DIODE0.4 1,2
.MODEL 1N5377B D(IS=1.65E-10 RS=73.3 TT=5.01E-8 CJO=6.72E-11 M=0.33 
+ BV=89.94 IBV=0.015 )