*1N5369B
*Ref: Diodes Incorporated Catalog, 1994
*51V 5W Si Zener pkg:DIODE0.4 1,2
.MODEL 1N5369B D(IS=1.65E-10 RS=25.9 TT=5.01E-8 CJO=1.08E-10 M=0.33 
+ BV=50.37 IBV=0.025 )