*1N5346B
*Ref: Diodes Incorporated Catalog, 1994
*9.1V 5W Si Zener pkg:DIODE0.4 1,2
.MODEL 1N5346B D(IS=3.17E-16 RS=1.82 TT=5.01E-8 CJO=3.97E-10 VJ=0.75 
+ M=0.33 BV=8.83 IBV=0.15 )