*1N5373B
*Ref: Diodes Incorporated Catalog, 1994
*68V 5W Si Zener pkg:DIODE0.4 1,2
.MODEL 1N5373B D(IS=1.65E-10 RS=42.7 TT=5.01E-8 CJO=8.48E-11 M=0.33 
+ BV=67.17 IBV=0.02 )