*1N5387B
*Ref: Diodes Incorporated Catalog, 1994
*190V 5W Si Zener pkg:DIODE0.4 1,2
.MODEL 1N5387B D(IS=1.65E-10 RS=445 TT=5.01E-8 CJO=4E-11 M=0.33 
+ BV=187.8 IBV=0.005 )