*1N5353B
*Ref: Diodes Incorporated Catalog, 1994
*16V 5W Si Zener pkg:DIODE0.4 1,2
.MODEL 1N5353B D(IS=1.18E-15 RS=2.16 TT=5.01E-8 CJO=3.12E-10 M=0.33 
+ BV=15.83 IBV=0.0781 )