.MODEL 2SA1930 PNP
+ IS=10.000E-15
+ BF=210
+ VAF=78
+ IKF=10.000E-3
+ XTB=1.5
+ BR=.1001
+ VAR=100
+ IKR=10.000E-3
+ ISC=10.000E-15
+ CJE=3.252E-12
+ CJC=63.196E-12
+ MJC=.33333
+ TF=83.239E-12
+ XTF=10
+ VTF=10
+ ITF=1

