.MODEL Q2SA1306 PNP
+ IS = 10F
+ BF = 242.184
+ NF = 1
+ VAF = 100
+ IKF = 893.902M
+ ISE = 1.38091F
+ NE = 1.14282
+ BR = 10
+ NR = 1
+ IKR = 10
+ ISC = 4.14797N
+ NC = 2.07728
+ NK = 500M
+ NS = 1
+ RE = 1
+ RC = 1.33009
+ CJE = 2P
+ VJE = 750M
+ MJE = 500M
+ CJC = 78.1902P
+ VJC = 699.995M
+ MJC = 499.982M
+ XCJC = 1
+ VJS = 750M
+ FC = 500M
+ TF = 1.94659N
+ XTF = 321.563M
+ VTF = 10.3808
+ ITF = 3.61046.P
+ TR = 10N
+ EG = 1.11
+ XTI = 3
+ AF = 1
.ENDS
