.MODEL Q2SA1302 PNP
+ IS =10F
+ BF =129.738
+ VAF =100 IKF=16
+ ISE =0.414467F
+ NE =1.12865
+ BR =10
+ IKR =9.99995
+ ISC =2.16381N
+ NC =2.21849
+ RE =1
+ RC =149.165M
+ CJE =2P MJE=500M
+ CJC =1.83549N
+ VJC =699.998M
+ MJC =499.587M
+ TF =6.72889N
+ XTF =444.956M
+ VTF =10.5982
+ ITF =1.13444P
+ TR =10N
.ENDS
