.MODEL Q2SB1275 PNP
+ IS=450.00E-15
+ BF=75.284
+ VAF=6.5824
+ IKF=1.0712
+ ISE=450.00E-15
+ NE=1.3466
+ BR=318.62
+ VAR=100
+ IKR=4.1919
+ ISC=1.4330E-9
+ NC=1.6223
+ NK=.57797
+ RE=.1
+ RB=1.4759
+ RC=.16193
+ CJE=327.67E-12
+ MJE=.58268
+ CJC=103.96E-12
+ MJC=.46676
+ TF=2.9216E-9
+ XTF=199.17
+ VTF=22.382
+ ITF=39.180
+ TR=273.01E-9
+ XTB=1.5000
