.MODEL Q2SC3281 NPN
+ IS=10F
+ BF=107.06
+ VAF=100
+ IKF=16.941
+ ISE=0.578669F
+ NE=1.14481
+ BR=10
+ IKR=1.04175
+ ISC=1.218480E-020
+ NC=2.99843
+ RE=1
+ RC=30.7022M
+ CJE=2P
+ MJE=500M
+ CJC=1.05579N
+ VJC=700M
+ MJC=500.059M
+ TF=4.16856N
+ XTF=500M
+ VTF=10
+ ITF=10.4762M
+ TR=10N)

