.MODEL Q2SD1918 NPN
+ IS=450.00E-15
+ BF=101.86
+ VAF=9.5235
+ IKF=2.0711
+ ISE=450.00E-15
+ NE=1.4191
+ BR=22.448
+ VAR=100
+ IKR=.96913
+ ISC=31.986E-12
+ NC=1.3523
+ NK=.68874
+ RE=.11
+ RC=31.067E-3
+ CJE=143.88E-12
+ MJE=.42942
+ CJC=65.705E-12
+ MJC=.44672
+ TF=1.8667E-9
+ XTF=31.223
+ VTF=8.4950
+ ITF=6.3273
+ TR=395.02E-9
+ XTB=1.5000
