* Audio-BJT
**-----------------------------------------------------------
* 2SA1538 - SANYO published model 2004/02/19
* 120V 0.2A 400MHz
*----------------------------------
.MODEL Q2SA1538 pnp
+ IS=10.2f
+ BF=140.0
+ NF=0.98
+ VAF=15.0
+ IKF=160.0m
+ ISE=30.0f
+ NE=1.36
+ BR=0.38
+ NR=1.00
+ VAR=60.0
+ IKR=2.00
+ ISC=20.0f
+ NC=1.80
+ RB=180.0m
+ IRB=1.00
+ RBM=180.0m
+ RE=40.0m
+ RC=190.0m
+ XTB=0
+ XTI=3
+ EG=1.11
+ NK=0.82
.ends Q2SA1538
**-----------------------------------------------------------
* 2SC3953 - SANYO published model 2004/02/19
* 120V 0.2A 400MHz
*----------------------------------
.MODEL Q2SC3953 npn
+ IS=5.80f
+ BF=96.0
+ NF=0.98
+ VAF=23.0
+ IKF=190.0m
+ ISE=70.0f
+ NE=1.50
+ BR=1.40
+ NR=1.00
+ VAR=38.0
+ IKR=20.0
+ ISC=10.0f
+ NC=1.50
+ RB=360.0m
+ IRB=1.00
+ RBM=80.0m
+ RE=60.0m
+ RC=180.0m
+ XTB=0
+ XTI=3
+ EG=1.11
+ NK=0.68
.ends Q2SC3953
**-----------------------------------------------------------
* 2SD1918 NPN
* 160V 1.5A 80Mhz
*----------------------------------
.MODEL Q2SD1918 NPN
+ IS=450.00E-15
+ BF=101.86
+ VAF=9.5235
+ IKF=2.0711
+ ISE=450.00E-15
+ NE=1.4191
+ BR=22.448
+ VAR=100
+ IKR=.96913
+ ISC=31.986E-12
+ NC=1.3523
+ NK=.68874
+ RE=.11
+ RC=31.067E-3
+ CJE=143.88E-12
+ MJE=.42942
+ CJC=65.705E-12
+ MJC=.44672
+ TF=1.8667E-9
+ XTF=31.223
+ VTF=8.4950
+ ITF=6.3273
+ TR=395.02E-9
+ XTB=1.5000
.ends Q2SD1918
**-----------------------------------------------------------
* 2SB1275 
* 160V 1.5A 50Mhz PNP
*----------------------------------
.MODEL Q2SB1275 PNP
+ IS=450.00E-15
+ BF=75.284
+ VAF=6.5824
+ IKF=1.0712
+ ISE=450.00E-15
+ NE=1.3466
+ BR=318.62
+ VAR=100
+ IKR=4.1919
+ ISC=1.4330E-9
+ NC=1.6223
+ NK=.57797
+ RE=.1
+ RB=1.4759
+ RC=.16193
+ CJE=327.67E-12
+ MJE=.58268
+ CJC=103.96E-12
+ MJC=.46676
+ TF=2.9216E-9
+ XTF=199.17
+ VTF=22.382
+ ITF=39.180
+ TR=273.01E-9
+ XTB=1.5000
.ends Q2SB1275
**-----------------------------------------------------------
* 2SA1306
* 160V 1.5A    100MHz
**-----------------------------------------------------------
.MODEL Q2SA1306 PNP
+ IS = 10F
+ BF = 242.184
+ NF = 1
+ VAF = 100
+ IKF = 893.902M
+ ISE = 1.38091F
+ NE = 1.14282
+ BR = 10
+ NR = 1
+ IKR = 10
+ ISC = 4.14797N
+ NC = 2.07728
+ NK = 500M
+ NS = 1 RE = 1
+ RC = 1.33009
+ CJE = 2P
+ VJE = 750M
+ MJE = 500M
+ CJC = 78.1902P
+ VJC = 699.995M
+ MJC = 499.982M
+ XCJC = 1
+ VJS = 750M
+ FC = 500M
+ TF = 1.94659N
+ XTF = 321.563M
+ VTF = 10.3808
+ ITF = 3.61046P
+ TR = 10N
+ EG = 1.11
+ XTI = 3
+ AF = 1
.ENDS
**-----------------------------------------------------------
* FJA4210 PNP TO-3P
* 140V 10A 30MHz
*----------------------------------
* Complement to FJA4310
*----------------------------------
.MODEL  FJA4210 PNP
+ LEVEL = 1
+ IS    = 6.16224E-12
+ NF    = 1.011
+ ISE   = 5.5544E-11
+ NE    = 2.0
+ BF    = 154.4
+ IKF   = 6.26105
+ VAF   = 278.7
+ NR    = 1.017
+ ISC   = 5.7544E-13
+ NC    = 1.01
+ BR    = 83.72
+ IKR   = 0.3656
+ VAR   = 282.793
+ RB    = 143.524
+ IRB   = 1.24897E-04
+ RBM   = 111.956
+ RE    = 0.0152681
+ RC    = 0.12
+ XTB   = 1.2491
+ EG    = 0.9873
+ XTI   = 3.0
+ CJE   = 3.27E-09
+ VJE   = 0.601
+ MJE   = 0.328
+ CJC   = 9.73E-10
+ VJC   = 0.473
+ MJC   = 0.364
+ XCJC  = 0.622
+ FC    = 0.5
.ends FJA4210
**-----------------------------------------------------------
* FJA4213 PNP TO-3P
* 250V 17A 30MHz
*----------------------------------
* Complement to FJA4313
*----------------------------------
.subckt FJA4213 1 2 3
q1 1 2 3 F4213
.model F4213 PNP
+ IS=1.30E-10          BF=91.42             VAF=100
+ IKF=4.480            ISE=1.02E-10         NE=2.0
+ VAR=100              ISC=5.0900E-9        NC=1.5
+ BR=0.882             IKR=2.9015           RE=0.0011
+ RC=0.0553            RB=140.05            RBM=0.0041
+ IRB=8.5e-9           CJE=2.00E-10         FC=0.5
+ CJC=9.45E-10         VJC=0.48             MJC=0.28
+ TF=9.250E-10         XTF=10               VTF=10
+ ITF=1                TR=1.00E-8           EG=0.76
+ XTB=2.68             
.ends FJL4213
***************** Power Discrete Bipolar Thermal Model 
.subckt FJA4213_Thermal TH TL
CTHERM1 TH 6 1.20e-3
CTHERM2 6 5  2.60e-3
CTHERM3 5 4  5.20e-3
CTHERM4 4 3  1.20e-2
CTHERM5 3 2  2.14e-2
CTHERM6 2 TL 8.20e-2 
RTHERM1 TH 6 5.00e-3
RTHERM2 6 5  1.20e-2
RTHERM3 5 4  1.53e-1
RTHERM4 4 3  2.30e-1
RTHERM5 3 2  2.70e-1
RTHERM6 2 TL 2.90e-1
.ends FJA4213_Thermal
**-----------------------------------------------------------
* FJA4313 NPN TO-3P
* 250V 17A 30MHz
*----------------------------------
*(Complement to FJA4213)
*----------------------------------
subckt FJA4313 1 2 3
q1 1 2 3 F4313
.model F4313 NPN
+ IS  = 3.0463E-11       BF  = 96.20           VAF = 100
+ IKF = 15.04256         ISE = 5.6190E-11      NE  = 2.0
+ BR  = 4.849            IKR = 1.05012         VAR = 100
+ ISC = 7.18E-8          NC  = 1.5             RE  = 0.0025
+ RB  = 20.18            RBM = 0.0014          IRB = 1.0E-7
+ RC  = 0.01137          CJE = 4.5000E-10      CJC = 8.4915E-10        
+ VJC = 0.68977          MJC = 0.54081         TF  = 6.8583E-10       
+ XTF = 9.5721           VTF = 10.425          ITF = 6.8697E-2       
+ TR  = 1.000E-8         XTB = 1.45            EG  = 0.82
+ FC  = 0.5
.ends FJA4313
***************** Power Discrete Bipolar Thermal Model ****************
.subckt FJA4313_Thermal TH TL
CTHERM1 TH 6 1.20e-3
CTHERM2 6 5  2.60e-3
CTHERM3 5 4  5.20e-3
CTHERM4 4 3  1.20e-2
CTHERM5 3 2  2.14e-2
CTHERM6 2 TL 8.20e-2
RTHERM1 TH 6 5.00e-3
RTHERM2 6 5  1.20e-2
RTHERM3 5 4  1.53e-1
RTHERM4 4 3  2.30e-1
RTHERM5 3 2  2.70e-1
RTHERM6 2 TL 2.90e-1
.ends FJA4313_Thermal
**-----------------------------------------------------------
* FJL4215/2SA1943 PNP TO-264
* 250V 17A 30MHz
*----------------------------------
* Complement to FJL4315/2SC5200.
*----------------------------------
.MODEL FJL4215 pnp 
+  IS   =3.5476E-11      
+  BF   =159.9
+  NF   =1.0 
+  BR   =25.75
+  NR   =1.011
+  ISE  =2.5119E-10
+  NE   =2
+  ISC  =7.9433E-11
+  NC   =1.37
+  VAF  =60.0
+  VAR  =11.07
+  IKF  =2.8370
+  IKR  =0.3548
+  RB   =2.74
+  RBM  =0.0381
+  IRB  =3.6308E-3
+  RE   =0.06
+  RC   =0.01
+  CJE  =4.1783E-9
+  VJE  =0.6354
+  MJE  =0.3374 
+  FC   =0.5
+  CJC  =1.1383E-9
+  VJC  =0.5
+  MJC  =0.3699
+  XCJC =0.7624    
+  XTB  =1.5306     
+  EG   =1.1751 
+  XTI  =3.0  
.ends FJL4215
**--------------------------------------------------------
* FJL4315/2SC5200 NPN TO-264
* 230V 15A 30MHz
*----------------------------------
* Complement to 2SA1943/FJL4215.
*----------------------------------
.MODEL FJL4315 npn
+  IS   =4.3031E-12      
+  BF   =152.1
+  NF   =1.0
+  BR   =6.155
+  NR   =1.028
+  ISE  =1.3924E-11
+  NE   =1.5 
+  ISC  =2.7542E-11
+  NC   =1.95
+  VAF  =60.0
+  VAR  =6.51
+  IKF  =10.8637
+  IKR  =0.1585
+  RB   =2.47
+  RBM  =0.02
+  IRB  =0.08
+  RE   =0.04
+  RC   =0.015
+  CJE  =5.8111E-9
+  VJE  =0.6506
+  MJE  =0.3357 
+  FC   =0.5
+  CJC  =6.4394E-10
+  VJC  =0.5
+  MJC  =0.3966
+  XCJC =0.7624
+  XTB  =1.0445
+  EG   =1.1663
+  XTI  =3.0
.ends FJL4315
**-----------------------------------------------------------
* MJ15003   140V 20A    2MHz
**-----------------------------------------------------------
.MODEL MJ15003  npn (+IS=1e-09 BF=226.431 NF=0.85 VAF=43.4348
+               IKF=10 ISE=1e-08 NE=1.79698 BR=1.65466
+               NR=1.5 VAR=434.348 IKR=4.42319 ISC=5.49997e-09
+               NC=3.18751 RB=43.922 IRB=0.1 RBM=0.1
+               RE=0.0001 RC=0.20765 XTB=0.746102 XTI=1
+               EG=1.05 CJE=9.62276e-08 VJE=0.505131 MJE=0.650363
+               TF=9.99972e-09 XTF=1.35733 VTF=0.996711 ITF=0.999802
+               CJC=1.22855e-09 VJC=0.95 MJC=0.23 XCJC=0.803115
+               FC=0.638728 CJS=0 VJS=0.75 MJS=0.5
+               TR=1e-07 PTF=0 KF=0 AF=1)
.ENDS
**-----------------------------------------------------------
* MJ15004   140V 20A    2MHz
**-----------------------------------------------------------
.MODEL MJ15004  pnp (IS=1e-09 BF=226.431 NF=0.85 VAF=43.4348
+               IKF=10 ISE=1e-08 NE=1.79698 BR=1.65466
+               NR=1.5 VAR=434.348 IKR=4.42319 ISC=5.49997e-09
+               NC=3.18751 RB=43.922 IRB=0.1 RBM=0.1
+               RE=0.0001 RC=0.20765 XTB=0.746102 XTI=1
+               EG=1.05 CJE=9.99946e-08 VJE=0.4 MJE=0.658304
+               TF=9.99976e-09 XTF=1.3573 VTF=0.996475 ITF=0.99985
+               CJC=1.22854e-09 VJC=0.95 MJC=0.23 XCJC=0.803124
+               FC=0.761291 CJS=0 VJS=0.75 MJS=0.5
+               TR=1e-07 PTF=0 KF=0 AF=1)
.ENDS
**-----------------------------------------------------------
* Mje15028 NPN TO-220 120V 8A 30MHz
* Complement to Mje15029
*----------------------------------
.MODEL MJE15028 npn (IS=1.67457e-10 BF=151.597 NF=1.12464 VAF=48.0367
+               IKF=2.26566 ISE=1e-16 NE=1 BR=0.874154
+               NR=1.25219 VAR=480.367 IKR=1.50672 ISC=1e-16
+               NC=2.99999 RB=16.5394 IRB=0.1 RBM=0.1
+               RE=0.000147477 RC=0.0444081 XTB=0.84328 XTI=1
+               EG=1.05 CJE=5.12619e-10 VJE=0.4 MJE=0.663107
+               TF=1.88824e-09 XTF=39.7723 VTF=212.462 ITF=55.8204
+               CJC=2.40888e-10 VJC=0.4 MJC=0.35679 XCJC=0.100001
+               FC=0.8 CJS=0 VJS=0.75 MJS=0.5
+               TR=2.26516e-06 PTF=0 KF=0 AF=1)
.ENDS
**-----------------------------------------------------------
* Mje15029 NPN TO-220
* 120V 8A 30MHz
*----------------------------------
* Complement to Mje15028
*----------------------------------
.MODEL MJE15029 pnp (IS=2.19799e-10 BF=386.919 NF=1.1687 VAF=10
+               IKF=0.645427 ISE=1e-08 NE=2.1839 BR=0.1
+               NR=1.5 VAR=67.6508 IKR=2.05316 ISC=1e-08
+               NC=2.10241 RB=2.47154 IRB=0.1 RBM=0.1
+               RE=0.0001 RC=0.0418264 XTB=0.1 XTI=1
+               EG=1.05 CJE=1.42139e-10 VJE=0.4 MJE=0.243206
+               TF=1.08569e-09 XTF=5.9818 VTF=3.50725 ITF=0.001
+               CJC=4.93339e-10 VJC=0.4 MJC=0.394058 XCJC=0.797959
+               FC=0.8 CJS=0 VJS=0.75 MJS=0.5
+               TR=9.57121e-06 PTF=0 KF=0 AF=1)
.ENDS
**-----------------------------------------------------------
* Mje15032 NPN TO-220
* 250V 8A 30MHz
*----------------------------------
* Complement to Mje15033
*----------------------------------
.MODEL MJE15032 npn (IS=3.7344e-10 BF=86.8313 NF=1.23974 VAF=31.5491
+                   IKF=9.1678 ISE=9.2499e-12 NE=3.28127 BR=5.59346
+                   NR=1.33161 VAR=2.1791 IKR=5.15023 ISC=4e-13
+                   NC=4 RB=9.54492 IRB=0.1 RBM=0.1
+                   RE=0.000568481 RC=0.0931741 XTB=0.737036 XTI=1.04983
+                   EG=1.206 CJE=3.05969e-09 VJE=0.648491 MJE=0.352663
+                   TF=4.94819e-09 XTF=1.50001 VTF=1.0001 ITF=0.999982
+                   CJC=3.00108e-10 VJC=0.600021 MJC=0.40991 XCJC=0.8
+                   FC=0.534651 CJS=0 VJS=0.75 MJS=0.5
+                   TR=1e-07 PTF=0 KF=0 AF=1)
.ENDS
**-----------------------------------------------------------
* Mje15033 PNP TO-220
* 250V 8A 30MHz
*----------------------------------
* Complement to Mje15032
*----------------------------------
.MODEL MJE15033 pnp (IS=7.51228e-10 BF=134.35 NF=1.25737 VAF=12.5778
+               IKF=1.88497 ISE=7.74267e-12 NE=3.34528 BR=5.14173
+               NR=1.47488 VAR=1.4505 IKR=7.47186 ISC=3.25e-13
+               NC=4 RB=4.37743 IRB=0.1 RBM=0.1
+               RE=0.000332989 RC=0.381218 XTB=0.223027 XTI=1
+               EG=1.05 CJE=3.06005e-09 VJE=0.64838 MJE=0.352991
+               TF=4.78203e-09 XTF=1.50001 VTF=1.00006 ITF=0.999988
+               CJC=3.00101e-10 VJC=0.600019 MJC=0.409916 XCJC=0.8
+               FC=0.534975 CJS=0 VJS=0.75 MJS=0.5
+               TR=1e-07 PTF=0 KF=0 AF=1)
.ENDS
**-----------------------------------------------------------
** Product: KSE340 NPN
** Package: TO-126
** High Voltage General Purpose Applications
**------------------------------------------------------------
.MODEL KSE340 NPN
+ IS=8.010E-13
+ BF=123.09
+ VAF=100
+ IKF=1.0825
+ ISE=4.0538E-11
+ NE=1.5
+ BR=0.00419
+ VAR=100
+ IKR=0.05102
+ ISC=1.4644E-10
+ NC=2.0
+ RE=0.0098
+ RC=2.015
+ RB=0.00444
+ CJE=1.58E-09
+ CJC=1.35E-10
+ TF=1.65E-8
+ XTF=10
+ VTF=10
+ ITF=1
+ TR=1.0E-8
+ EG=0.64
+ XTB=0.95
.ENDS
**------------------------------------------------------------
** Product: KSE350 PNP
** Package: TO-126
** High Voltage General Purpose Applications
**------------------------------------------------------------
.MODEL KSE350 pnp
+ IS = 2.7544E-13     
+ BF = 128                          
+ BR = 0.0362                    
+ ISE = 1.9546E-12        
+ NE = 1.5               
+ ISC = 5.24807E-12
+ NC = 2                  
+ VAF = 100
+ VAR = 100
+ IKF = 0.3663            
+ IKR = 0.007544 
+ RB = 0.0085             
+ RE = 0.007 
+ RC = 0.042                
+ CJE = 9.572E-12
+ VJE = 0.748
+ MJE = 0.371
+ FC = 0.5
+ CJC = 1.147E-11
+ VJC = 0.541          
+ MJC = 0.329
+ TF = 8.262E-10
+ XTB = 1.125
+ EG = 0.75
+ XTI = 3
.ENDS
**-----------------------------------------------------------
* NJW0281G
* 250V 15A    30MHz
**-----------------------------------------------------------
.MODEL NJW0281G npn (IS=4.36849e-12 BF=98.1488 NF=1.01332 VAF=37.9046
+               IKF=9.71849 ISE=1e-16 NE=1.8326 BR=0.79921
+               NR=1.09994 VAR=339.743 IKR=5.77305 ISC=1e-16
+               NC=2.71592 RB=2.74892 IRB=0.33289 RBM=2.74892
+               RE=0.000344671 RC=0.03203 XTB=1.7742 XTI=1.12262
+               EG=1.20598 CJE=3.66793e-09 VJE=0.74806 MJE=0.85
+               TF=2.27115e-09 XTF=1000 VTF=912.955 ITF=296.602
+               CJC=5e-10 VJC=0.95 MJC=0.270858 XCJC=0.98254
+               FC=0.8 CJS=0 VJS=0.75 MJS=0.5
+               TR=1e-07 PTF=0 KF=0 AF=1)
.ENDS
**-----------------------------------------------------------
* NJW0302G
* 250V 15A    30MHz
**-----------------------------------------------------------
.MODEL NJW0302G pnp (IS=5.16751e-16 BF=114.657 NF=0.895716 VAF=50.2189
+               IKF=6.409 ISE=3.9641e-15 NE=4 BR=1.47167
+               NR=0.923324 VAR=255.567 IKR=6.34299 ISC=3.96408e-15
+               NC=2.82194 RB=2.66347 IRB=0.1 RBM=2.0828
+               RE=0.0001 RC=0.0652395 XTB=1.45322 XTI=1.08126
+               EG=1.05 CJE=2.14504e-09 VJE=0.4 MJE=0.376227
+               TF=2.16864e-09 XTF=1000 VTF=843.737 ITF=501.348
+               CJC=5e-10 VJC=0.95 MJC=0.251547 XCJC=1
+               FC=0.8 CJS=0 VJS=0.75 MJS=0.5
+               TR=1e-07 PTF=0 KF=0 AF=1)
.ENDS
**-----------------------------------------------------------
* 2SA1302
* 250V 15A    30MHz
**-----------------------------------------------------------
.MODEL Q2SA1302 PNP (IS=10F BF=129.738 VAF=100 IKF=16 ISE=0.414467F
+               NE=1.12865 BR=10 IKR=9.99995 ISC=2.16381N
+               NC=2.21849 RE=1 RC=149.165M CJE=2P MJE=500M
+               CJC=1.83549N VJC=699.998M MJC=499.587M TF=6.72889N
+               XTF=444.956M VTF=10.5982 ITF=1.13444P TR=10N)
.ENDS
**-----------------------------------------------------------
* 2SC3281
* 200V 15A 10MHz
**-----------------------------------------------------------
.MODEL Q2SC3281 NPN (IS=10F BF=107.06 VAF=100 IKF=16.941 ISE=0.578669F
+               NE=1.14481 BR=10 IKR=1.04175 ISC=1.218480E-020
+               NC=2.99843 RE=1 RC=30.7022M CJE=2P MJE=500M
+                CJC=1.05579N VJC=700M MJC=500.059M TF=4.16856N
                XTF=500M VTF=10 ITF=10.4762M TR=10N)
.ENDS
**-----------------------------------------------------------
* MJL21194
* 250V 16A    30MHz
**-----------------------------------------------------------
.MODEL MJL21194ON   npn (IS=5.47293e-11 BF=41.975 NF=1.09031 VAF=34.2662
+                   IKF=9.80375 ISE=8.29283e-12 NE=3.34198 BR=2.55513
+                   NR=1.18905 VAR=3.07754 IKR=10 ISC=6.74104e-13
+                   NC=3.80328 RB=3.47951 IRB=0.1 RBM=0.1
+                   RE=0.000192264 RC=0.0350697 XTB=1.60274 XTI=1.19488
+                   EG=1.206 CJE=6.77437e-08 VJE=0.797955 MJE=0.463082
+                   TF=1e-08 XTF=4.96962 VTF=19630.7 ITF=4.65938
+                   CJC=4.49735e-10 VJC=0.95 MJC=0.321786 XCJC=0.1
+                   FC=0.8 CJS=0 VJS=0.75 MJS=0.5
+                   TR=1e-07 PTF=0 KF=0 AF=1)
.ENDS
**-----------------------------------------------------------
* MJL21194
* 250V 16A    30MHz
**-----------------------------------------------------------
.MODEL MJL21194 npn (IS=9.56205e-11 BF=62.3633 NF=0.858602 VAF=29.6613
+               IKF=9.86004 ISE=7.00007e-12 NE=3.43749 BR=4.96358
+               NR=0.925054 VAR=6.18692 IKR=4.87016 ISC=3.25e-13
+               NC=4 RB=11.0204 IRB=0.1 RBM=0.1
+               RE=0.000675706 RC=0.124974 XTB=0.150823 XTI=1.00001
+               EG=1.11955 CJE=1.70807e-08 VJE=0.4 MJE=0.520397
+               TF=1e-08 XTF=47.3046 VTF=1.88154 ITF=0.560261
+               CJC=5e-10 VJC=0.95 MJC=0.238884 XCJC=0.800727
+               FC=0.8 CJS=0 VJS=0.75 MJS=0.5
+               TR=1e-07 PTF=0 KF=0 AF=1)
.ENDS
**-----------------------------------------------------------
* MJL21193
* 250V 16A    30MHz
**-----------------------------------------------------------
.MODEL MJL21193 pnp (IS=2.11472e-10 BF=286.381 NF=1.1016 VAF=1000
+               IKF=3.10565 ISE=1.63547e-08 NE=2.06994 BR=0.00431616
+               NR=1.78217 VAR=1.71712 IKR=10 ISC=2.56806e-13
+               NC=3.96746 RB=2.81058 IRB=1e-12 RBM=1.04377
+               RE=0.00951621 RC=0.047581 XTB=0.1 XTI=0.01
+               EG=1.05 CJE=6.08799e-08 VJE=0.99 MJE=0.391391
+               TF=1.90715e-08 XTF=1.24582 VTF=12.9644 ITF=4.57909
+               CJC=2.19003e-09 VJC=0.0988421 MJC=0.34222 XCJC=0.744224
+               FC=1e-21 CJS=0 VJS=0.75 MJS=0.5
+               TR=1e-07 PTF=0 KF=0 AF=1)
.ENDS
**-----------------------------------------------------------
* MJL3281
* 200V 15A    30MHz
**-----------------------------------------------------------
.MODEL MJL3281A npn (IS=8.26882e-10 BF=97.5769 NF=1.27505 VAF=63.6913
+                   IKF=7.75466 ISE=7.44075e-12 NE=3.39947 BR=0.1
+                   NR=1.6501 VAR=7.8831 IKR=15.9415 ISC=4.16531e-13
+                   NC=3.98207 RB=1.0642 IRB=2.65716 RBM=1.0642
+                   RE=0.0001 RC=0.051212 XTB=0.82132 XTI=1
+                   EG=1.206 CJE=1.10527e-08 VJE=0.677092 MJE=0.394732
+                   TF=1.93853e-09 XTF=1000 VTF=4.32084 ITF=149.92
+                   CJC=1.00256e-09 VJC=0.924803 MJC=0.524843
+                   XCJC=0.100008 FC=0.8 CJS=0 VJS=0.75 MJS=0.5
+                   TR=1e-07 PTF=0 KF=0 AF=1)
.ENDS
**-----------------------------------------------------------
* MJL1302A
* 200V 15A    30MHz
**-----------------------------------------------------------
.MODEL MJL1302A pnp (IS=7.56722e-11 BF=148.663 NF=1.0861 VAF=33.2962
+                   IKF=6.03056 ISE=7.00157e-12 NE=3.37477 BR=3.57438
+                   NR=1.38503 VAR=2.45693 IKR=7.65272 ISC=4.75e-13
+                   NC=3.96875 RB=3.55494 IRB=0.217628 RBM=0.1
+                   RE=0.000905557 RC=0.0997087 XTB=1.30215 XTI=1
+                   EG=1.206 CJE=1.62625e-08 VJE=0.99 MJE=0.496165
+                   TF=2.98166e-09 XTF=1000 VTF=3.58167 ITF=546.327
+                   CJC=1.72466e-09 VJC=0.814009 MJC=0.457122 XCJC=1
+                   FC=0.207567 CJS=0 VJS=0.75 MJS=0.5
+                   TR=1e-07 PTF=0 KF=0 AF=1)
.ENDS
**----------------------------------------------------------------------
* 2SA1943 PNP
* 200V 15A 20MHz
*----------------------------------
* Complement to 2SC5200
**---------------------------------
.MODEL Q2SA1943 PNP (IS =3.5476E-11 BF =159.9 NF =1.0 BR =25.75
+              NR =1.011 ISE =2.5119E-10 NE =2 ISC =7.9433E-11
+              NC =1.37 VAF =60.0 VAR =11.07 IKF =2.8370 IKR =0.3548
+              RB =2.74 RBM =0.0381 IRB =3.6308E-3 RE =0.06 RC =0.01
+              CJE =4.1783E-9 VJE =0.6354 MJE =0.3374 FC =0.5
+              CJC =1.1383E-9 VJC =0.5 MJC =0.3699 XCJC =0.7624
+              XTB =1.5306 EG =1.1751 XTI =3.0)
.ENDS
**----------------------------------------------------------------------
* 2SC5200 PNP
* 200V 15A 20MHz
*----------------------------------
* Complement to 2SA1943
**---------------------------------
.MODEL KSC5200  NPN (IS =4.3031E-12 BF =152.1 NF =1.0 BR =6.155
+               NR =1.028 ISE =1.3924E-11 NE =1.5 ISC =2.7542E-11 NC =1.95
+               VAF =60.0 VAR =6.51 IKF =10.8637 IKR =0.1585 RB =2.47
+               RBM =0.02 IRB =0.08 RE =0.04 RC =0.015 CJE =5.8111E-9
+               VJE =0.6506 MJE =0.3357 FC =0.5 CJC =6.4394E-10 VJC =0.5
+               MJC =0.3966 XCJC =0.7624 XTB =1.0445 EG =1.1663 XTI =3.0 )
.ENDS
**----------------------------------------------------------------------
.MODEL Q2SC4883A  NPN
**
+ (IS=725f BF=114 NF=1
+ VAF=40 IKF=2.25 ISE=7e-11 NE=10 BR=1.97064 NR=1.50008
+ VAR=22.902 IKR=35.9467 ISC=4.75e-12 NC=3.59375 RB=7.5 IRB=0.1
+ RBM=0.1 RE=0.0001 RC=0.130733 XTB=0.337319 XTI=1.40625
+ EG=1.31 CJE=1n VJE=0.651779 MJE=0.35303
+ TF=1.2n XTF=1.35721 VTF=0.995654 ITF=1 CJC=90p
+ VJC=0.429208 MJC=0.35114 XCJC=0.803125 FC=0.533449 CJS=0
+ VJS=0.75 MJS=0.5 TR=85n PTF=0 KF=0 AF=1)
**----------------------------------------------------------------------
.MODEL Q2SA1859A  PNP
**
+ (IS=600f BF=148 NF=1
+ VAF=30 IKF=6 ISE=4.79702e-14 NE=4 BR=1.96197 NR=1.29503
+ VAR=23.2874 IKR=9.99625 ISC=4.79702e-14 NC=3.59375 RB=6.5
+ IRB=0.108633 RBM=0.101928 RE=0.000100027 RC=0.122304
+ XTB=0.137608 XTI=1.0316 EG=1.32 CJE=1.495n VJE=0.651747
+ MJE=0.353069 TF=1.7n XTF=1.35721 VTF=0.99569 ITF=0.999994
+ CJC=68p VJC=0.42654 MJC=0.24282 XCJC=0.803125 FC=0.533457
+ CJS=0 VJS=0.75 MJS=0.5 TR=188.8n PTF=0 KF=0 AF=1)
**----------------------------------------------------------------------
.MODEL Q2SA1837 PNP
**
+ (IS=2.39372559E-10 NF=1.304015937 BF=300 VAF=273
+ IKF=2.087725944 NK=0.94719458 ISE=1.46829699E-11
+ NE=1.526663542 BR=4 NR=1 VAR=20 IKR=1.05 RE=0
+ RB=1.8 RC=1.65 CJE=4.7407E-10 VJE=1.1 MJE=0.5
+ CJC=8.6700E-11 VJC=0.3 MJC=0.3 TF=1.642191E-09
+ FC=0.5 ITF=1.076260106 XTF=5.868994022 TR=1.38U)
**----------------------------------------------------------------------
.MODEL Q2SC4793  NPN
**
+ (IS=1.8E-09 NF=1.43 BF=146.38 VAF=273 IKF=2.6
+ NK=0.95 ISE=6.286997E-10 NE=2.223629 BR=4
+ NR=1 VAR=20 IKR=1.05 RE=0 RB=1.7 RC=1.25
+ CJE=5.96964E-10 VJE=1.1 MJE=0.5 CJC=5.78E-11
+ VJC=0.3 MJC=0.3 TF=1.22678E-09 FC=0.5 ITF=10
+ XTF=99.52253015 TR=983N)
**----------------------------------------------------------------------
* MJL4281A NPN
* 350V 15A 35MHz
*----------------------------------
* Complement to MJL4302A
**---------------------------------
.MODEL MJL4281A npn
+IS=9.94641e-11 BF=191.836 NF=1.11524 VAF=24.7449
+IKF=5.75399 ISE=6.4507e-12 NE=3.39407 BR=4.35182
+NR=1.1764 VAR=4.25175 IKR=6.61715 ISC=3.89999e-13
+NC=3.99 RB=4.37715 IRB=0.00966879 RBM=1e-15
+RE=0.00608852 RC=0.0434329 XTB=0.661303 XTI=1.00355
+EG=1.05 CJE=9.04931e-09 VJE=0.99 MJE=0.844324
+TF=1.6665e-09 XTF=1000 VTF=17023.9 ITF=152.472
+CJC=8.80163e-10 VJC=0.942802 MJC=0.23183 XCJC=1
+FC=0.8 CJS=0 VJS=0.75 MJS=0.5
+TR=1e-07 PTF=0 KF=0 AF=1
**----------------------------------------------------------------------
* MJL4302A PNP
* 350V 15A 35MHz
*----------------------------------
* Complement to MJL4281A
**---------------------------------
.MODEL MJL4302A pnp
+IS=8.52181e-11 BF=505.26 NF=1.14612 VAF=15.6851
+IKF=2.86699 ISE=3.82966e-09 NE=2.09196 BR=50.526
+NR=1.18655 VAR=1.41005 IKR=9.95655 ISC=4.51392e-11
+NC=1.28018 RB=98.7069 IRB=4.30971e-06 RBM=0.110355
+RE=0.00577433 RC=0.0288716 XTB=0.00344757 XTI=0.00948369
+EG=1.05 CJE=1.42406e-08 VJE=0.99 MJE=0.23
+TF=2.22092e-09 XTF=15.6824 VTF=100000 ITF=63.5289
+CJC=5.00002e-10 VJC=0.893622 MJC=2.3e-21 XCJC=1
+FC=0.1 CJS=0 VJS=0.75 MJS=0.5
+TR=1e-07 PTF=0 KF=0 AF=1
**----------------------------------------------------------------------
* MJ15022 NPN
* 200V 16A 4MHz
*----------------------------------
* Complement to MJ15023
**---------------------------------
.MODEL MJ15022 npn
+IS=1.24935e-14 BF=96.3779 NF=0.85 VAF=48.1022
+IKF=3.90374 ISE=7.37535e-11 NE=2.44613 BR=0.1
+NR=0.874229 VAR=311.961 IKR=10 ISC=4.00026e-11
+NC=2.90623 RB=1.98906 IRB=0.1 RBM=0.1
+RE=0.0001 RC=0.0630429 XTB=0.676723 XTI=1.23042
+EG=1.206 CJE=7.95824e-09 VJE=0.4 MJE=0.597812
+TF=1e-08 XTF=1000 VTF=1.06995 ITF=0.741799
+CJC=5e-10 VJC=0.95 MJC=0.335098 XCJC=0.1
+FC=0.8 CJS=0 VJS=0.75 MJS=0.5
+TR=1e-07 PTF=0 KF=0 AF=1
**----------------------------------------------------------------------
* MJ15023 NPN
* 200V 16A 4MHz
*----------------------------------
* Complement to MJ150232
**---------------------------------
.MODEL MJ15023 pnp
+IS=2.16e-14 BF=69.6949 NF=0.903189 VAF=10
+IKF=2.67992 ISE=1.6609e-12 NE=2.30046 BR=0.1
+NR=1.05741 VAR=100 IKR=1.06678 ISC=1.56893e-12
+NC=2.81239 RB=1.9712 IRB=3.62359 RBM=1.9712
+RE=0.0001 RC=0.0667376 XTB=1.34239 XTI=1
+EG=1.05 CJE=8.04822e-09 VJE=0.4 MJE=0.497304
+TF=1e-08 XTF=1000 VTF=1.06505 ITF=0.425519
+CJC=5e-10 VJC=0.95 MJC=0.23 XCJC=0.1
+FC=0.8 CJS=0 VJS=0.75 MJS=0.5
+TR=1e-07 PTF=0 KF=0 AF=1
**----------------------------------------------------------------------





