**************************************
.MODEL 2P302A NJF
 + 				VTO = -2.854E+000
 + 				BETA = 9.25964E-003
 + 				RD = 1.3
 + 				RS = 1.3
 + 				CGS = 8E-012
 + 				CGD = 2E-011
 *************************************
