.MODEL BF861A NJF
+VTO=-0.5111
+BETA=0.01519
+LAMBDA=0.03593
+RD=4.164
+RS=4.164
+IS=4.102E-16
+CGS=6.299E-12
+CGD=6.299E-12
+PB=0.6917
+FC=0.5
.ENDS
