.model BF862 NJF
+   Vto=-0.57093
+   Beta=0.0478
+   Lambda=0.0373
+   Rd=0.8
+   Rs=7.5000
+   Is=424.60E-12
+   Cgs=8.2890E-12
+   Cgd=7.4002E-12
+   Pb=0.5
+   Fc=0.5
*+   Af=1
*+   Vtotc=-2.0000E-3
*+   Isr=2.995E-12
*+   Alpha=-1.0000E-3
*+   Betatce=-0.5
*+   N=1
*+   Nr=2
*+   Xti=3
*+   Vk=59.97
*+   M=0.6015
*+   Kf=87.5E-18
.ENDS


