* 2SK389 NJF
.MODEL J2SK389  NJF
+   Vto=-0.5275
+   Beta=51.76E-3
+   Lambda=11.22E-3
+   Rs=8.008
+   Rd=8.008
+   Is=11.28E-12
+   Cgs=20.07E-12
+   Cgd=18.28E-12
+   Pb=0.3905
+   Fc=0.5
*+   Betatce=-0.5
*+   Vtotc=-2.5E-3
*+   M=0.3367
*+   Isr=112.8E-12
*+   Nr=2
*+   N=1
*+   Xti=3
*+   Alpha=10E-6
*+   Vk=100
*+   Kf=92.85E-18
*+   Af=1
