.MODEL LSK389C NJF
+   VTO=-0.80043
+   BETA=0.02785
+   LAMBDA=0.012243
+   RD=12
+   RS=5.8
+   IS=2.45217E-14
+   CGD=4.22E-11
+   CGS=4.23E-11
+   PB=0.9265487
+   FC=0.5
+   MJ=0.6098477
+   KF=0
+   AF=1
+   N=1
